
     RDKit          3D

 54 58  0  0  0  0  0  0  0  0999 V2000
   -4.4137   -0.2296   -1.4928 C   0  0  0  0  0  0  0  0  0  0  0  0
   -5.1227   -1.0159   -0.3993 C   0  0  0  0  0  0  0  0  0  0  0  0
   -4.1791   -1.5453    0.6531 C   0  0  0  0  0  0  0  0  0  0  0  0
   -4.7301   -2.0971    1.8221 C   0  0  0  0  0  0  0  0  0  0  0  0
   -3.9104   -2.6693    2.7916 C   0  0  0  0  0  0  0  0  0  0  0  0
   -2.5369   -2.7232    2.5873 C   0  0  0  0  0  0  0  0  0  0  0  0
   -1.9795   -2.1799    1.4272 C   0  0  0  0  0  0  0  0  0  0  0  0
   -2.7815   -1.5474    0.4693 C   0  0  0  0  0  0  0  0  0  0  0  0
   -2.2296   -0.9882   -0.7196 N   0  0  0  0  0  0  0  0  0  0  0  0
   -3.1220   -0.9334   -1.8758 C   0  0  0  0  0  0  0  0  0  0  0  0
   -0.9431   -0.4704   -0.8722 C   0  0  0  0  0  0  0  0  0  0  0  0
   -0.3927   -0.4164   -1.9830 O   0  0  0  0  0  0  0  0  0  0  0  0
   -0.2959    0.2758    0.3360 C   0  0  0  0  0  0  0  0  0  0  0  0
   -0.9048    1.6655    0.4863 C   0  0  0  0  0  0  0  0  0  0  0  0
   -1.5007    2.0362    1.7024 C   0  0  0  0  0  0  0  0  0  0  0  0
   -2.0746    3.2993    1.8579 C   0  0  0  0  0  0  0  0  0  0  0  0
   -2.0597    4.2080    0.8027 C   0  0  0  0  0  0  0  0  0  0  0  0
   -1.4716    3.8561   -0.4101 C   0  0  0  0  0  0  0  0  0  0  0  0
   -0.8981    2.5933   -0.5693 C   0  0  0  0  0  0  0  0  0  0  0  0
    1.1408    0.3934    0.0889 N   0  0  0  0  0  0  0  0  0  0  0  0
    1.9791   -0.6278    0.4801 C   0  0  0  0  0  0  0  0  0  0  0  0
    1.5888   -1.5721    1.1585 O   0  0  0  0  0  0  0  0  0  0  0  0
    3.3387   -0.5015    0.0041 C   0  0  0  0  0  0  0  0  0  0  0  0
    4.3146   -1.4828   -0.0531 C   0  0  0  0  0  0  0  0  0  0  0  0
    5.5011   -0.9130   -0.5869 C   0  0  0  0  0  0  0  0  0  0  0  0
    6.7824   -1.4139   -0.8841 C   0  0  0  0  0  0  0  0  0  0  0  0
    7.7487   -0.5507   -1.4135 C   0  0  0  0  0  0  0  0  0  0  0  0
    7.4531    0.7911   -1.6432 C   0  0  0  0  0  0  0  0  0  0  0  0
    6.1872    1.3109   -1.3545 C   0  0  0  0  0  0  0  0  0  0  0  0
    5.2328    0.4320   -0.8294 C   0  0  0  0  0  0  0  0  0  0  0  0
    3.9301    0.6569   -0.4504 N   0  0  0  0  0  0  0  0  0  0  0  0
   -5.0704   -0.1221   -2.3631 H   0  0  0  0  0  0  0  0  0  0  0  0
   -4.1858    0.7815   -1.1298 H   0  0  0  0  0  0  0  0  0  0  0  0
   -5.8845   -0.3779    0.0645 H   0  0  0  0  0  0  0  0  0  0  0  0
   -5.6375   -1.8734   -0.8515 H   0  0  0  0  0  0  0  0  0  0  0  0
   -5.8074   -2.0934    1.9737 H   0  0  0  0  0  0  0  0  0  0  0  0
   -4.3454   -3.0983    3.6904 H   0  0  0  0  0  0  0  0  0  0  0  0
   -1.8941   -3.2076    3.3187 H   0  0  0  0  0  0  0  0  0  0  0  0
   -0.9122   -2.3190    1.2716 H   0  0  0  0  0  0  0  0  0  0  0  0
   -2.6537   -0.3883   -2.7023 H   0  0  0  0  0  0  0  0  0  0  0  0
   -3.3053   -1.9588   -2.2198 H   0  0  0  0  0  0  0  0  0  0  0  0
   -0.4245   -0.2666    1.2693 H   0  0  0  0  0  0  0  0  0  0  0  0
   -1.5273    1.3403    2.5388 H   0  0  0  0  0  0  0  0  0  0  0  0
   -2.5345    3.5727    2.8038 H   0  0  0  0  0  0  0  0  0  0  0  0
   -2.5083    5.1905    0.9252 H   0  0  0  0  0  0  0  0  0  0  0  0
   -1.4663    4.5640   -1.2353 H   0  0  0  0  0  0  0  0  0  0  0  0
   -0.4542    2.3370   -1.5296 H   0  0  0  0  0  0  0  0  0  0  0  0
    1.3669    0.8199   -0.7982 H   0  0  0  0  0  0  0  0  0  0  0  0
    4.1747   -2.5119    0.2538 H   0  0  0  0  0  0  0  0  0  0  0  0
    7.0203   -2.4583   -0.7047 H   0  0  0  0  0  0  0  0  0  0  0  0
    8.7398   -0.9336   -1.6446 H   0  0  0  0  0  0  0  0  0  0  0  0
    8.2187    1.4460   -2.0530 H   0  0  0  0  0  0  0  0  0  0  0  0
    5.9619    2.3572   -1.5330 H   0  0  0  0  0  0  0  0  0  0  0  0
    3.4784    1.5598   -0.4756 H   0  0  0  0  0  0  0  0  0  0  0  0
  1  2  1  0
  2  3  1  0
  3  4  2  0
  4  5  1  0
  5  6  2  0
  6  7  1  0
  7  8  2  0
  8  9  1  0
  9 10  1  0
  9 11  1  0
 11 12  2  0
 11 13  1  0
 13 14  1  0
 14 15  2  0
 15 16  1  0
 16 17  2  0
 17 18  1  0
 18 19  2  0
 13 20  1  0
 20 21  1  0
 21 22  2  0
 21 23  1  0
 23 24  2  0
 24 25  1  0
 25 26  2  0
 26 27  1  0
 27 28  2  0
 28 29  1  0
 29 30  2  0
 30 31  1  0
 10  1  1  0
  8  3  1  0
 19 14  1  0
 31 23  1  0
 30 25  1  0
  1 32  1  0
  1 33  1  0
  2 34  1  0
  2 35  1  0
  4 36  1  0
  5 37  1  0
  6 38  1  0
  7 39  1  0
 10 40  1  0
 10 41  1  0
 13 42  1  0
 15 43  1  0
 16 44  1  0
 17 45  1  0
 18 46  1  0
 19 47  1  0
 20 48  1  0
 24 49  1  0
 26 50  1  0
 27 51  1  0
 28 52  1  0
 29 53  1  0
 31 54  1  0
M  END
